resultados/_temp_alt0_1p10/LineSummary.csv
line,maxCurrentA,normAmps,maxLoadingPct,meanLoadingPct,overloadHours
rbt_1607347,93.11712043774298,124.95,74.52350575249538,25.7279915601855,0
sbt_7584,93.11713054822319,163.8,56.848065047755306,19.62584130609663,0
sbt_22840,93.11712591795178,163.8,56.848062220971784,19.625841230061685,0
rbt_630758,31.21633085848216,76.65,40.72580672991801,17.43056703753221,0
rbt_637576,24.790179172319537,61.95,40.01643127089514,14.611959270444663,0
rbt_632607,44.86705251238981,124.95,35.908005211996645,16.889557432895423,0
rbt_606147,25.457811249895357,76.65,33.21306099138337,12.358028494286232,0
rbt_1130761,27.90533675316253,90.3,30.902919992428053,14.543075999368648,0
rbt_637918,17.777014421700503,61.95,28.695745636320424,11.278581011047407,0
rbt_605836,23.688523952154465,90.3,26.23313837447892,12.354996406350812,0
rbt_637360,16.19279911779451,61.95,26.13849736528573,12.280373665451231,0
rbt_1607350,22.032622319152523,90.3,24.39936026484222,8.76659441366554,0
rbt_626476,13.993921624143823,61.95,22.589058311773723,10.628022642372954,0
rbt_606126,13.575460547525909,61.95,21.913576347903,7.792027934280093,0
rbt_1633671,13.22880862621779,61.95,21.35400908186891,10.055600075040475,0
rbt_3405844,18.96653457537014,90.3,21.003914258438694,7.240269944941665,0
rbt_606143,14.885050714177074,76.65,19.41950517179005,6.86611342653406,0
rbt_1627323,13.773030359200964,76.65,17.968728452969295,8.453751587825021,0
sbt_34378,22.611813732634403,128.1,17.651689096513977,8.661018790996069,0
sbt_34379,22.541221894945604,128.1,17.596582275523502,8.536684104663577,0
rbt_635862,10.788027329141778,61.95,17.414087698372523,5.974527251943839,0
rbt_3435739,13.327445010253061,76.65,17.387403796807646,8.20138059272489,0
rbt_637397,10.74127036298147,61.95,17.338612369623036,8.149243524097434,0
rbt_605816,10.231467776826918,61.95,16.515686483982112,6.214147862229107,0
sbt_24791,25.457832556738573,163.8,15.542022317911217,5.782924228516343,0
sbt_3174,25.45782367873857,163.8,15.542016897886793,5.7829258454924926,0
rbt_609688,11.216072628064415,76.65,14.632841002040983,5.3280853864640365,0
smt_29422,23.63487083743956,163.8,14.429103075359926,8.786475824111148,0
smt_19119,23.633942421446186,163.8,14.42853627682917,8.78693438176443,0
smt_17184,23.632799900390882,163.8,14.427838767027398,8.786469128237668,0
rbt_1638954,7.865136831582351,61.95,12.695943230964247,5.967718874384507,0
rbt_1607265,11.051171934427705,90.3,12.238285641669663,5.759491112287113,0
rbt_606139,9.340389495658163,76.65,12.185765812991733,4.3623027109283665,0
rbt_623004,7.277322322100477,61.95,11.747090108313925,4.576164898184408,0
sbt_11363,18.115791862350083,163.8,11.059701991666717,4.12252791579565,0
sbt_9361,23.6885240127435,216.3,10.951698572696948,5.157911091661839,0
rbt_606121,6.382965213955161,61.95,10.303414388951024,4.841124462447255,0
rbt_1605991,6.104681793993201,61.95,9.854207899908314,4.632859481804347,0
rbt_1607280,6.055860978865679,61.95,9.775401095828377,4.594051089373779,0
sbt_34393,12.18490545016072,128.1,9.512026112537644,6.253489654706896,0
rbt_635543,5.82070784308045,61.95,9.395815727329216,3.7316979545401376,0
rbt_606114,8.279924253654933,90.3,9.1693513329512,4.309997261238483,0
rbt_627337,8.060119596266084,90.3,8.925935322553803,4.197309473295934,0
rbt_1621994,7.906338354203938,90.3,8.75563494374744,4.114610283195211,0
rbt_626678,7.725714536701666,90.3,8.555608567775932,4.023551585129316,0
rbt_606150,5.257383147879266,61.95,8.486494185438685,3.9868341361672166,0
rbt_1607272,7.56830747223071,90.3,8.381292881761585,3.943547740456255,0
rbt_623007,5.170743243158155,61.95,8.346639617688707,3.921674937924653,0
sbt_22748,17.902141958072253,216.3,8.276533498877601,3.8943665598606785,0
sbt_7427,17.902133750680502,216.3,8.276529704429265,3.8943626397269924,0
sbt_34383,10.590317519094445,128.1,8.267226790862175,4.869977019449119,0
sbt_34392,10.590314379967763,128.1,8.26722434033393,5.182938954711632,0
sbt_34384,10.576646329956008,128.1,8.256554512065579,3.9882179749639945,0
smt_34713,23.62014215457781,286.65,8.24006354598912,5.017914258438717,0
smt_34700,23.619993740664444,286.65,8.240011770683568,5.01788017877454,0
smt_34701,23.6196421775943,286.65,8.239889125272738,5.0177994709947695,0
smt_34715,23.619341541937228,286.65,8.23978424627149,5.0177304770761095,0
smt_34702,23.619043774312818,286.65,8.239680367804926,5.01766216185712,0
smt_34703,23.61863590041718,286.65,8.239538077940757,5.017568618603478,0
smt_34704,23.61814557269983,286.65,8.239367023443165,5.017456215732121,0
smt_34716,23.617839117569062,286.65,8.239260114274922,5.017385991917503,0
smt_34705,23.617531001292438,286.65,8.239152625603502,5.0173154092146195,0
smt_34717,23.617163855472494,286.65,8.239024544033663,5.0172313326454345,0
smt_34706,23.61679212450868,286.65,8.238894862902036,5.017146237626365,0
smt_34707,23.616354443448262,286.65,8.238742174585125,5.017046086360799,0
smt_34708,23.615946655874616,286.65,8.238599914835032,5.016952814997489,0
smt_34709,23.61542041018465,286.65,8.238416330083604,5.01683250576085,0
smt_34718,23.61512725482278,286.65,8.23831406063938,5.016765512791623,0
smt_34710,23.61484057286525,286.65,8.238214049490757,5.016700018219114,0
smt_34719,23.614540735501265,286.65,8.238109448980033,5.016631538455205,0
smt_34711,23.61424186752162,286.65,8.238005186646301,5.016563300650014,0
smt_34720,23.613901105446697,286.65,8.237886309243573,5.016485522616681,0
smt_34712,23.61358673771279,286.65,8.237776639704446,5.016413792680646,0
smt_34721,23.613361165691508,286.65,8.2376979472149,5.016362337150111,0
smt_34714,23.61335188782413,286.65,8.237694710561358,5.016360221630463,0
rbt_1630759,6.258725382428191,76.65,8.16532991836685,3.8408070286380664,0
rbt_606122,5.0542065233964895,61.95,8.158525461495543,3.8347236125855826,0
rbt_1229546,7.336691410680354,90.3,8.124796689568498,3.82092293161103,0
rbt_1638606,5.004861033949759,61.95,8.07887172550405,3.79863102954609,0
rbt_605905,7.160235609863016,90.3,7.929386057434126,3.7275130512100585,0
rbt_1607283,7.08906614790711,90.3,7.850571592366679,3.693114623685128,0
smt_31417,25.23651661861567,327.6,7.703454401286834,4.714242415446169,0
smt_31416,25.236470223959774,327.6,7.70344023930396,4.714233089960904,0
smt_31411,25.236452542774117,327.6,7.703434842116641,4.714229536266095,0
smt_31412,25.236432534763733,327.6,7.703428734665363,4.714225514848533,0
smt_31413,25.236313898212764,327.6,7.703392520821967,4.7142016714167045,0
smt_31414,25.236224745283963,327.6,7.703365306863236,4.7141837552146475,0
smt_31415,25.235998840728037,327.6,7.703296349428582,4.714138363782072,0
smt_4387,25.23562734416056,327.6,7.70318294998796,4.714063738303673,0
smt_4863,25.235198703646834,327.6,7.703052107340302,4.713977664930578,0
smt_4693,25.234839102063795,327.6,7.702942338847311,4.713905480621955,0
smt_4591,25.23451047446962,327.6,7.702842025173876,4.71383953430998,0
smt_17964,25.234479676175987,327.6,7.702832623985343,4.705483453742216,0
smt_4627,25.23416172612398,327.6,7.702735569634914,4.713769571698319,0
smt_6826,25.23403251305426,327.6,7.7026961273059396,4.705392842358404,0
smt_4527,25.233882778385503,327.6,7.702650420752595,4.71371362767094,0
smt_7012,25.233516345395557,327.6,7.70253856697056,4.7052882933281515,0
smt_23134,25.233429309258774,327.6,7.702511999163239,4.713622712809522,0
smt_22791,25.233053812754573,327.6,7.702397378740712,4.705194649057758,0
smt_18545,25.233022731355717,327.6,7.702387891134223,4.713541230669318,0
smt_10381,25.232591981216295,327.6,7.702256404522679,4.713454936829498,0
smt_7020,25.232513880745152,327.6,7.702232564330022,4.705085383642781,0
smt_18806,25.232374377200063,327.6,7.7021899808303,4.713411356170715,0
smt_24122,25.232303558256902,327.6,7.702168363326282,4.713397175133735,0
smt_6842,25.23209842800866,327.6,7.70210574725539,4.7050013449584185,0
smt_6830,25.231468176091475,327.6,7.701913362665285,4.704873916030967,0
smt_29390,25.230757514419327,327.6,7.701696432972932,4.7046414681213236,0
smt_31407,25.230710162043277,327.6,7.701681978645689,4.704720750694345,0
smt_31408,25.230245947756938,327.6,7.701540277093081,4.7127707035340585,0
smt_17776,25.230147685646585,327.6,7.701510282553903,4.704517026201279,0
smt_10747,25.22952713072983,327.6,7.701320857976139,4.704390464706892,0
smt_18202,25.228988245308415,327.6,7.701156363036755,4.7042806162794415,0
smt_17794,25.22848818875758,327.6,7.701003720621971,4.704178729961442,0
smt_29420,25.228179211312,327.6,7.700909405162393,4.704115798615503,0
smt_22739,25.227998645212026,327.6,7.7008542873052575,4.704079029601193,0
smt_17795,25.2274032779511,327.6,7.7006725512671235,4.7039578357474126,0
smt_29389,25.226739084705887,327.6,7.700469806076278,4.703822707412099,0
smt_19163,25.226166770978345,327.6,7.700295107136247,4.703706335856064,0
smt_17961,25.22580201332007,327.6,7.700183764749716,4.703632198744276,0
smt_29388,25.225381333353244,327.6,7.700055352061429,4.703546725349685,0
smt_17962,25.2248643017442,327.6,7.6998975280049455,4.70344171923376,0
rbt_1107340,6.787589396687735,90.3,7.516710295335255,3.537179180224068,0
rbt_605822,6.786961865056898,90.3,7.516015354437318,3.5370005372164175,0
rbt_1626486,6.7849987114674795,90.3,7.513841319454572,3.5308977650422584,0
rbt_1607287,6.780414223815188,90.3,7.50876436745868,3.5318777511993136,0
rbt_606132,4.534402629295184,61.95,7.319455414520071,3.4390436088343503,0
rbt_623433,6.566368165431671,90.3,7.2717255431137,3.4213446892481945,0
smt_6447,23.69175677767713,327.6,7.231915988301932,4.406098330637588,0
smt_6627,23.691377976640155,327.6,7.231800359169766,4.4060236786817955,0
smt_24630,23.690774076742883,327.6,7.231616018541784,4.405904724924016,0
smt_24629,23.690401454495476,327.6,7.231502275487019,4.405831363737552,0
smt_24628,23.689904663737487,327.6,7.231350629956497,4.4057335997059885,0
smt_24627,23.689535832157265,327.6,7.231238044004049,4.40566104887293,0
smt_6957,23.689190803439065,327.6,7.2311327238824985,4.4055932047914395,0
smt_6431,23.688761412580124,327.6,7.231001652191734,4.405508805651439,0
smt_24626,23.68840407642343,327.6,7.230892575220828,4.405438597398808,0
smt_12228,23.68801555722148,327.6,7.230773979615836,4.40536229138499,0
rbt_626698,6.52157774470075,90.3,7.22212374828433,3.3944030974489903,0
smt_6510,23.64196373346368,327.6,7.216716646356434,4.3946423057995085,0
smt_19223,23.641439614772846,327.6,7.21655665896607,4.39453818411427,0
smt_22843,23.640993500035382,327.6,7.216420482306282,4.394449602260878,0
smt_6737,23.64060439129863,327.6,7.216301706745614,4.394372372348881,0
smt_24665,23.640097346021555,327.6,7.216146931020011,4.394271780175955,0
smt_24635,23.639573525373486,327.6,7.2159870346072905,4.394167914283862,0
smt_24637,23.639031515146122,327.6,7.21582158581994,4.394060499734405,0
smt_24636,23.63850148077478,327.6,7.215659792666294,4.393955515673559,0
smt_19174,23.63801890300717,327.6,7.215512485655423,4.393859980484545,0
smt_6686,23.637449612029197,327.6,7.215338709410621,4.3937473390213615,0
smt_19173,23.636492298137874,327.6,7.2150464890530746,4.3935580692638805,0
smt_19172,23.636168814391713,327.6,7.214947745540816,4.393494155213452,0
smt_6544,23.635815838082777,327.6,7.2148399994147665,4.393424438029424,0
smt_6535,23.63529411369221,327.6,7.214680742885291,4.3933214368893525,0
smt_24634,23.634153614144914,327.6,7.21433260505034,4.393096464508443,0
smt_24633,23.63374663003324,327.6,7.214208373026019,4.393016246612528,0
smt_24511,23.63343036914187,327.6,7.21411183429239,4.393362900135178,0
smt_24632,23.633308830078118,327.6,7.214074734456079,4.392929992020833,0
smt_1873,23.632877944029833,327.6,7.213943206358313,4.392845137246973,0
smt_29446,23.6327861299434,327.6,7.213915180080403,4.393231761798457,0
smt_24631,23.632491850804012,327.6,7.213825351283274,4.392769135292154,0
smt_32671,23.632361248816295,327.6,7.2137854849866585,4.393145320882846,0
smt_6527,23.63209073608461,327.6,7.213702910892737,4.392690208160581,0
smt_6389,23.631892248996166,327.6,7.213642322648401,4.3930499464932575,0
smt_24510,23.631877845711276,327.6,7.213637926041293,4.393047018008461,0
smt_24509,23.631379213825706,327.6,7.213485718506014,4.392945667903905,0
smt_24508,23.630942134735182,327.6,7.2133522999802135,4.39285687006708,0
smt_6426,23.630548118174726,327.6,7.213232026304861,4.3927768539521574,0
smt_6420,23.63014640453019,327.6,7.213109403092243,4.3926953069936525,0
smt_6140,23.629712317343763,327.6,7.212976897846081,4.39260722490381,0
smt_6653,23.629298273732925,327.6,7.212850510907486,4.3925232453958625,0
smt_6650,23.62889030621289,327.6,7.212725978697463,4.392440532090309,0
smt_29445,23.62849011843643,327.6,7.2126038212565415,4.392359428763392,0
smt_24507,23.628078436034624,327.6,7.212478155077723,4.39227602962441,0
smt_24506,23.627668157267994,327.6,7.212352917358972,4.3921929488938645,0
smt_24505,23.627244776821712,327.6,7.212223680348508,4.392107250705813,0
smt_24459,23.626881504034746,327.6,7.212112791219397,4.392033748019647,0
smt_24458,23.626443942601483,327.6,7.211979225458327,4.39194524955849,0
smt_24457,23.62600364632712,327.6,7.211844824886178,4.391856236966144,0
smt_24456,23.625598779941274,327.6,7.211721239298313,4.391774421618114,0
smt_24455,23.62518314754588,327.6,7.211594367382747,4.391690465131193,0
smt_24454,23.624784399728338,327.6,7.211472649489724,4.391609952022495,0
smt_19165,23.624344118251976,327.6,7.211338253434668,4.391521089968463,0
smt_17113,23.623883770074283,327.6,7.211197732012907,4.391428219720026,0
smt_6993,23.622873803395922,327.6,7.210889439376045,4.391224619838115,0
smt_24453,23.622260984565933,327.6,7.210702376241127,4.391101181648357,0
smt_24452,23.621786667484145,327.6,7.210557590807125,4.391005693425428,0
smt_24451,23.6213709619588,327.6,7.210430696568619,4.390922042046752,0
smt_24450,23.620978278833466,327.6,7.210310829924745,4.390843055454899,0
smt_6394,23.62054868090375,327.6,7.210179695025563,4.390756679224938,0
smt_24668,23.61334117164608,327.6,7.207979600624566,4.389313055070526,0
smt_29393,23.613172974576102,327.6,7.207928258417613,4.389279490891263,0
smt_19218,23.611759349182012,327.6,7.207496748834558,4.3889976235509405,0
smt_6502,23.61126743401091,327.6,7.207346591578421,4.388899633404686,0
smt_24667,23.611010365502437,327.6,7.20726812133774,4.388848444407652,0
smt_6683,23.610319184563945,327.6,7.207057138145282,4.38871087841522,0
smt_19220,23.609758352407315,327.6,7.206885943958276,4.388599326495565,0
smt_22844,23.60936831481417,327.6,7.206766884863909,4.388521783701258,0
smt_6687,23.608939733721346,327.6,7.2066360603545006,4.3884366134734245,0
smt_24666,23.608618426637875,327.6,7.206537981269193,4.388372785678768,0
rbt_1607252,5.49500701965495,76.65,7.168958929752053,3.3713474921203264,0
rbt_637356,4.294867256149683,61.95,6.932796216545089,3.2588813841553446,0
rbt_631391,6.181705114614556,90.3,6.845742098133506,5.184563833759512,0
rbt_605855,5.097017740351845,76.65,6.649729602546437,3.1278251451973564,0
rbt_1607255,5.953314170611922,90.3,6.592817464686513,3.0991244677440766,0
rbt_636933,4.956293543482678,76.65,6.466136390714518,3.0425110707972167,0
rbt_605910,3.8934216058868514,61.95,6.284780639042537,2.9523062386408125,0
rbt_627343,5.637211256238727,90.3,6.242758866266586,2.9334512859822794,0
sbt_28279,13.228820814878604,216.3,6.11595969250051,2.880001939250136,0
sbt_20214,13.228813373903023,216.3,6.11595625238235,2.880002227190749,0
rbt_1607304,3.7874828934815334,61.95,6.113773839356793,2.8712939077417245,0
rbt_1607305,5.350678080804462,90.3,5.925446379628419,2.7857838026748882,0
rbt_1607285,3.6348492145638867,61.95,5.867391791063578,2.7549665830993924,0
rbt_606103,4.416408114563505,76.65,5.761784885275283,2.7084131637884,0
rbt_3405846,4.40200841699464,76.65,5.742998587077156,2.7005757774461823,0
rbt_606109,3.5062108088557076,61.95,5.659743032858285,2.6589248841508777,0
rbt_605825,5.1090865912582615,90.3,5.657903201836391,2.6604727382155318,0
sbt_4580,9.189856532815167,163.8,5.610413023696683,2.639868329462233,0
rbt_1631852,5.057501892494401,90.3,5.600777289584054,2.6325558246185863,0
rbt_605993,5.02818871505153,90.3,5.568315299060387,2.6168987509278128,0
rbt_621999,4.991475190506529,90.3,5.527658018279656,2.598262810769183,0
rbt_630753,4.98829598384875,90.3,5.524137302158085,2.5978253728485754,0
sbt_6049,9.014184959880133,163.8,5.503165421172242,2.589640189680141,0
rbt_607384,3.3022741011005947,61.95,5.330547378693454,2.5045439703345145,0
rbt_1607278,4.0792308509837545,76.65,5.321892825810508,2.5006515040429695,0
smt_6110,17.41322653355892,327.6,5.3153927147615745,3.047795976565643,0
rbt_1628760,4.790532322271811,90.3,5.305129924996469,2.492678468574573,0
rbt_3433894,4.763304991652278,90.3,5.274977842361327,2.480011155577287,0
rbt_1607357,4.018397590102275,76.65,5.242527840968394,2.4639714439540694,0
smt_24515,16.882394078185474,327.6,5.153355945722062,3.013371799838096,0
smt_6552,16.882006604313805,327.6,5.153237669204458,3.0132815657614054,0
smt_6549,16.88149464645946,327.6,5.153081393913143,3.013162401224026,0
smt_23959,16.881047604651677,327.6,5.152944934264858,3.0130584017468625,0
smt_22744,16.88051131037832,327.6,5.152781230274212,3.012933706424473,0
smt_19175,16.880065280583434,327.6,5.152645079543172,3.012830055069465,0
smt_19177,16.879557413271584,327.6,5.152490052891204,3.0127120958094147,0
smt_19176,16.87902366173948,327.6,5.152327125073102,3.012588196117635,0
smt_19164,16.878791263074127,327.6,5.152256185309563,3.0125342723804773,0
smt_32311,16.878391374756553,327.6,5.152134119278557,3.012441518376134,0
smt_39119,16.877911729115457,327.6,5.1519877073002,3.012330318712896,0
smt_32312,16.8778892105632,327.6,5.15198083350525,3.012325099585846,0
smt_32310,16.877870847172886,327.6,5.151975228074751,3.01232084345756,0
smt_32309,16.877427013628157,327.6,5.151839747749742,3.0122180042081337,0
smt_32314,16.877224094850764,327.6,5.151777806731002,3.0121710044157717,0
smt_32313,16.877208689392496,327.6,5.1517731042101635,3.012167435565111,0
smt_6802,16.877032003135948,327.6,5.151719170676419,3.0666542898303724,0
smt_24514,16.8764777769949,327.6,5.151549992977686,3.0665266990498554,0
smt_24513,16.87590220427668,327.6,5.151374299229756,3.066394274687328,0
smt_19166,16.87545056908537,327.6,5.151236437449746,3.066290422736921,0
smt_6414,16.875009712174464,327.6,5.1511018657431205,3.066189098105029,0
smt_18852,16.874563533444835,327.6,5.150965669549705,3.0660865995150424,0
smt_6403,16.874068469805035,327.6,5.150814551222538,3.065972928760139,0
smt_1832,16.873638103960115,327.6,5.150683181917007,3.065874162694225,0
smt_1831,16.87321882975862,327.6,5.150555198339017,3.0657779864589543,0
smt_1829,16.87239568514754,327.6,5.15030393319522,3.065589294770455,0
smt_1828,16.871799836424017,327.6,5.150122050190481,3.065452812075773,0
smt_6350,16.785088442023113,327.6,5.123653370580925,2.9974472452013288,0
smt_24517,16.782909643862737,327.6,5.122988291777392,2.9971653978150754,0
smt_24520,16.782241916902436,327.6,5.122784467918936,2.9970097944005865,0
smt_19116,16.78192662485797,327.6,5.12268822492612,2.9969363604567056,0
rbt_605806,4.389458397430432,90.3,4.860972754629493,2.2843950172562906,0
rbt_622714,4.323023173011167,90.3,4.787401077531747,2.2511734699196526,0
sbt_25907,10.231492201594458,216.3,4.730232178268357,1.7797798860148568,0
sbt_21361,10.231485487236029,216.3,4.730229074080457,1.7797799870564779,0
sbt_20771,10.231480125570945,216.3,4.730226595270894,1.7797821378160215,0
rbt_1607258,3.613912921721882,76.65,4.714824424947008,2.2172388176725795,0
smt_6066,7.684416984303483,163.8,4.691341260258537,2.694037221935694,0
smt_6062,7.6840119296426375,163.8,4.691093974140804,2.6939642038482763,0
smt_6719,7.683564568641465,163.8,4.690820859976474,2.6938844616249376,0
smt_6176,7.683060118053667,163.8,4.690512892584656,2.6937907718286893,0
smt_6144,7.682588870394748,163.8,4.690225195601189,2.693706380034678,0
smt_6227,7.682089175274884,163.8,4.689920131425448,2.6936152996960074,0
smt_19063,7.681606270166501,163.8,4.689625317561966,2.6935283224839757,0
smt_6092,7.6811275367504575,163.8,4.689333050519204,2.693439798370301,0
smt_29474,7.680712708802105,163.8,4.689079797803482,2.693368372542089,0
smt_29473,7.680248248138485,163.8,4.688796244284789,2.6932862630721246,0
smt_19115,7.679783503340208,163.8,4.688512517301715,2.6931997695965078,0
smt_24512,7.679417012401403,163.8,4.6882887743598305,2.69311859379285,0
rbt_627328,4.219892600976175,90.3,4.673192249143051,2.1994718507632203,0
sbt_5830,7.5817588698265475,163.8,4.628668418697526,2.177868950278144,0
smt_37840,7.580248908818276,163.8,4.627746586580144,2.6676573504575125,0
smt_6474,7.579918176471739,163.8,4.627544674280671,2.667597595837892,0
smt_19061,7.579508417339703,163.8,4.627294516080404,2.667519556677817,0
smt_29476,7.5791080305694605,163.8,4.627050079712735,2.6674476977820287,0
smt_6594,7.578619050140103,163.8,4.626751556862089,2.667356122982683,0
smt_29475,7.578125922402331,163.8,4.626450502077125,2.667261210800073,0
smt_19011,7.577700783919029,163.8,4.626190954773522,2.6671849509898338,0
smt_19014,7.577213361854503,163.8,4.6258933833055575,2.6670947333320103,0
rbt_621168,3.5114074787740317,76.65,4.581092601140289,2.153266417088354,0
rbt_605815,4.120596746782906,90.3,4.563230062882509,2.1459532251973226,0
rbt_1107330,4.120096041880646,90.3,4.562675572403816,2.1473343053755927,0
rbt_621171,2.8191169449694264,61.95,4.550632679530954,2.1379412569460086,0
rbt_3422597,4.1021035650556135,90.3,4.542750348898797,2.136520568729287,0
rbt_606127,2.798270402769187,61.95,4.51698208679449,2.1221679239639584,0
rbt_635966,2.7827508981130396,61.95,4.491930424718385,2.110630464211089,0
rbt_1124041,4.047527163862307,90.3,4.482311366403442,2.1081023456017998,0
rbt_605921,3.3352228201197938,76.65,4.3512365559292805,2.045376804942402,0
sbt_14007,7.089065863407878,163.8,4.327879037489547,2.035947624201086,0
rbt_627336,3.871277880654953,90.3,4.287129435941255,2.014402339635064,0
rbt_1627321,3.8566747987361802,90.3,4.270957695167421,2.007610898680011,0
rbt_1607355,3.840620118804199,90.3,4.253178426139756,1.9991293590269417,0
rbt_605902,2.634331654994872,61.95,4.2523513397818755,1.9982616248720848,0
sbt_35173,5.350677683143599,128.1,4.17695369488181,1.9637489171621418,0
rbt_1607358,3.1979627105688473,76.65,4.17216270132922,1.961254603027432,0
sbt_21952,9.01418410013292,216.3,4.167445261272733,1.9610862592632643,0
sbt_20840,6.786961841913236,163.8,4.143444347932379,1.9498848549246162,0
sbt_6273,6.780413918750428,163.8,4.139446836843972,1.9470606178646526,0
rbt_3405838,3.6840216798164045,90.3,4.079758227925144,1.919822633544907,0
rbt_622273,2.344705418655764,57.75,4.060095963040284,1.9111595438121756,0
rbt_1107341,2.5118379769161745,61.95,4.054621431664527,1.9074491538317373,0
smt_6536,11.579629241287027,286.65,4.039640412100829,2.3886751912673128,0
smt_6703,11.5790469676637,286.65,4.039437281585104,2.3885422451835905,0
smt_6514,11.578475932914378,286.65,4.039238071834774,2.3884120331625014,0
smt_6984,11.578388763389283,286.65,4.039207662092895,2.3883921708271667,0
smt_5854,11.577501807811904,286.65,4.038898240994908,2.388190290363113,0
smt_5855,11.576837206816249,286.65,4.038666389958573,2.3880392842787126,0
rbt_638617,2.5018893355281464,61.95,4.038562284952617,1.8998057047201444,0
smt_5657,11.576292438661236,286.65,4.038476343506449,2.3879156748268273,0
smt_21743,11.575718067150243,286.65,4.038275969701812,2.387785513424301,0
smt_22741,11.575129492990175,286.65,4.038070641196643,2.3876523095331135,0
smt_6098,11.574661852251285,286.65,4.03790750122145,2.387546602056433,0
smt_19120,11.574119511719847,286.65,4.037718301663997,2.3874241503726323,0
smt_22740,11.573582683064439,286.65,4.037531024965791,2.3873030927221177,0
smt_22738,11.559142210304257,286.65,4.032493357859501,2.3817657389645817,0
smt_6754,11.55865315892173,286.65,4.032322748620873,2.381654229643632,0
smt_6567,11.558155977727354,286.65,4.032149303236475,2.3815409919391586,0
smt_6746,11.557661704566907,286.65,4.0319768723415,2.381428541958547,0
smt_6812,11.557175924848035,286.65,4.031807404447248,2.381318146227782,0
rbt_605828,3.63962762352428,90.3,4.0305953748884615,1.8968331227853505,0
rbt_1607292,3.569991740548527,90.3,3.953479225413651,1.8588703308146002,0
sbt_4118,11.21608014176952,286.65,3.912813585128038,1.4247266081124612,0
rbt_1626490,3.531321747709546,90.3,3.910655313078124,2.961904902822784,0
rbt_1635060,2.422619771263914,61.95,3.9106049576495785,1.8389082768914875,0
sbt_37156,6.382965000770707,163.8,3.8968040297745454,1.8309379665412033,0
rbt_605867,3.5113485663641346,90.3,3.8885366183434495,1.8285168184701044,0
sbt_4615,6.297217113524549,163.8,3.8444548922616293,1.8099164686419213,0
sbt_3373,6.29721591350538,163.8,3.8444541596491937,1.8099156734671114,0
sbt_20793,6.297214811729782,163.8,3.8444534870145186,1.8099149495624562,0
sbt_4010,6.297213103239023,163.8,3.844452443979867,1.8099138381214648,0
sbt_28804,6.297211551270632,163.8,3.8444514965022174,1.809912839584853,0
rbt_605812,3.4290646829384226,90.3,3.7974138238520734,1.7872016182165977,0
rbt_632613,3.425899282606475,90.3,3.793908397127879,1.7845042758474603,0
rbt_622713,3.4085069290771437,90.3,3.774647761990192,1.7737424527867207,0
rbt_606120,2.327395317226442,61.95,3.7568931674357415,1.764691411074424,0
sbt_26269,8.060119230264085,216.3,3.7263611790402615,1.7522746544475547,0
rbt_1132019,3.318937044103294,90.3,3.6754563057622307,1.7281791280997938,0
rbt_605863,3.302849605060464,90.3,3.657640758649462,1.7202826232098385,0
rbt_634166,2.775543494771332,76.65,3.6210613108562715,1.701610993477301,0
rbt_1138614,2.2284069218493783,61.95,3.5971056042766394,1.691339653580763,0
smt_7052,5.8576057599766,163.8,3.5760718925376063,1.936424880105615,0
rbt_605803,3.2076160585254416,90.3,3.552177251966159,1.6698467204693566,0
rbt_605834,3.1847673707965374,90.3,3.5268741647802186,1.660412497600073,0
smt_29484,5.761312318411745,163.8,3.5172846876750574,1.7426082789133739,0
smt_22951,5.761298850667423,163.8,3.517276465608927,1.7426000009710378,0
rbt_605904,2.1787052451315585,61.95,3.5168769090097793,1.651333184925002,0
smt_19381,5.759964578548427,163.8,3.516461891665706,1.7417810002704612,0
smt_18804,5.7592699421878395,163.8,3.5160378157434917,1.7413555347112375,0
smt_19380,5.758473903369723,163.8,3.5155518335590497,1.7408687344624656,0
smt_5349,5.757836111774991,163.8,3.515162461401093,1.7404793060108206,0
smt_18803,5.757188311004731,163.8,3.5147669786353664,1.740084313791624,0
smt_13454,5.75652684545017,163.8,3.5143631535104825,1.7396815612047913,0
smt_19377,5.755740553223507,163.8,3.5138831216260726,1.7392035586041625,0
smt_29411,5.754752027565974,163.8,3.5132796261086527,1.7386037820785614,0
smt_8954,5.754144670720525,163.8,3.512908834383714,1.7382359233522011,0
smt_5584,5.753436672704401,163.8,3.5124766011626383,1.7378077343524196,0
rbt_605810,2.6874022488127713,76.65,3.5060694700753703,1.6478725035351127,0
smt_37837,7.580805040907693,216.3,3.5047642352786372,2.020248724258519,0
smt_37841,7.580459157893822,216.3,3.5046043263494324,2.0201944623267463,0
rbt_605864,3.1579129047152796,90.3,3.497134999684695,1.644810534999592,0
rbt_609682,2.662184882567244,76.65,3.4731701011966654,1.6339451333844022,0
rbt_622703,2.1361801223590655,61.95,3.4482326430331964,2.6121107415933955,0
rbt_605835,3.1124505845342907,90.3,3.446789130159791,1.6226927502548525,0
sbt_14006,5.634803521137482,163.8,3.4400509897054223,1.6177148408873776,0
sbt_27416,7.336691282992437,216.3,3.391905355058916,1.595142522273574,0
sbt_15213,7.3366912322832105,216.3,3.391905331614984,1.5951425113231654,0
rbt_606128,2.58583245697477,76.65,3.3735583261249444,1.5854251880083126,0
sbt_37537,7.277353449983136,216.3,3.3644722376251206,1.3106503423702327,0
sbt_37545,7.277344805385571,216.3,3.3644682410474207,1.3106509321299253,0
sbt_37546,7.277328087304651,216.3,3.364460511930028,1.3106498460403417,0
sbt_37539,7.269546470752429,216.3,3.3608629083460144,1.8288349641820425,0
sbt_37538,7.2695409423282165,216.3,3.360860352440229,1.8288354879130269,0
rbt_1607257,3.0188664425362255,90.3,3.3431522065738934,1.5715012399269879,0
rbt_607385,3.012942772489159,90.3,3.3365922175959684,1.5693467029476322,0
rbt_3405845,3.003230601472896,90.3,3.325836767965555,1.5655816274810903,0
rbt_633056,2.999241204655465,90.3,3.321418831290659,1.5616140208003502,0
rbt_606141,2.9959631405472735,90.3,3.3177886384798154,1.5618550673018348,0
rbt_623015,2.987994179398972,90.3,3.30896365381946,2.506319544725842,0
sbt_34389,4.219891348692888,128.1,3.294216509518258,2.5348799465798395,0
smt_25186,5.382873679363546,163.8,3.286247667499112,1.7951677282633167,0
smt_37855,7.030016473546816,216.3,3.250123196276845,1.7465035252033119,0
smt_37854,7.029657691578453,216.3,3.2499573238920263,1.7464903618028769,0
smt_37853,7.029327540546082,216.3,3.2498046881858906,1.7464824517952742,0
smt_37852,7.028988671704117,216.3,3.2496480220546076,1.7464713433425578,0
smt_37851,7.028669505720699,216.3,3.249500464965649,1.7464646918570799,0
smt_37850,7.0283375363424305,216.3,3.2493469886002915,1.7464563513648892,0
smt_37849,7.028006931819093,216.3,3.2491941432358264,1.7464498207094286,0
smt_37848,7.027664528062869,216.3,3.2490358428399766,1.7464417688840541,0
smt_37847,7.027323422323091,216.3,3.2488781425441933,1.7464223284817348,0
smt_37846,7.027083682748543,216.3,3.248767305940149,1.746427363741395,0
smt_37845,7.02675645747458,216.3,3.24861602287313,1.746423048501791,0
smt_38000,7.026407676969663,216.3,3.2484547743733994,1.7464096988225994,0
smt_38002,7.026112305726991,216.3,3.248318218089224,1.7463696246224394,0
smt_38001,7.0261046462216505,216.3,3.248314676940199,1.7463700992553248,0
smt_37843,7.02609302056204,216.3,3.2483093021553584,1.746406714924972,0
smt_37842,7.025771352834961,216.3,3.2481605884581417,1.7463821362279222,0
smt_37838,7.025605115562231,216.3,3.248083733500801,1.7463911669945495,0
rbt_605982,2.9272627010615038,90.3,3.2417084175653423,1.5251879713167016,0
rbt_1606000,2.9259787080432127,90.3,3.240286498386725,1.5234209541235433,0
rbt_1629639,2.913129059240186,90.3,3.2260565440090656,1.5157118015183695,0
sbt_3952,5.267235047091859,163.8,3.215650211899791,1.5133180072501753,0
sbt_4120,5.267233630701861,163.8,3.215649347192833,1.5133170893816779,0
sbt_20855,5.267232249791362,163.8,3.2156485041461305,1.513316201490605,0
sbt_20854,5.267230938144976,163.8,3.21564770338521,1.5133153642652248,0
rbt_635963,1.9909162687261523,61.95,3.213747003593466,1.5095378659548542,0
rbt_626481,2.8634934519845463,90.3,3.171089094113562,1.4905708219113494,0
rbt_1607306,2.4147035856171564,76.65,3.1502982199832434,1.4812669049129763,0
rbt_605901,2.8355593741113414,90.3,3.140154345638252,1.4755143987996313,0
rbt_605820,2.403018278624104,76.65,3.1350532010751517,1.4745418628872606,0
rbt_3405847,2.829482091450724,90.3,3.1334242430240575,1.4748901832495938,0
sbt_34000,6.73597258548081,216.3,3.1141805758117473,1.463789020307949,0
rbt_1607289,2.38693904941395,76.65,3.1140757330906066,1.4634032946360056,0
sbt_20828,5.054205261025135,163.8,3.0855953974512422,1.4503113516891368,0
rbt_1609690,2.744645487667356,90.3,3.0394745156892093,1.428164361447595,0
smt_6512,8.661544744775636,286.65,3.0216447740365036,1.8036900303020655,0
smt_6425,8.661157901228608,286.65,3.021509820767001,1.8036135892075313,0
smt_6930,8.660565315929816,286.65,3.0213030929460376,1.8034956139471978,0
sbt_34382,3.8643570194781227,128.1,3.016672146352945,1.4176448710479672,0
rbt_1625170,2.7223280681161834,90.3,3.014759765355685,1.4166535221059025,0
smt_15243,4.937123510268845,163.8,3.0141169171360467,1.7683689157704896,0
smt_26472,4.936691119063402,163.8,3.013852942041149,1.768307516482734,0
smt_14780,4.936201161183116,163.8,3.0135538224561147,1.7682344129233984,0
smt_14754,4.935712379282871,163.8,3.0132554208076137,1.7681622171274929,0
smt_14729,4.935226161393664,163.8,3.0129585844894162,1.77290420709447,0
smt_21229,4.934732705842855,163.8,3.012657329574392,1.7728322270346453,0
smt_26474,4.9342678257210455,163.8,3.0123735199762183,1.7727632356140608,0
smt_22453,4.933857895964994,163.8,3.0121232576098866,1.772711970434713,0
smt_14544,4.933365614367722,163.8,3.011822719394214,1.7726443950047628,0
smt_14113,4.932874080839318,163.8,3.0115226378750415,1.772581215998425,0
smt_22508,4.932334967432476,163.8,3.0111935088110355,1.772504633472268,0
smt_14452,4.931859808253904,163.8,3.010903423842432,1.7724364180706889,0
smt_30311,4.931461169058549,163.8,3.010660054370298,1.7723913001919336,0
smt_26478,4.9309696800294045,163.8,3.0103600000179513,1.7723216121421919,0
rbt_605821,3.849232171334242,128.1,3.0048650830087764,1.4118316685807326,0
smt_37856,6.4865573491355,216.3,2.9988707115744337,1.6411857969651293,0
sbt_35105,3.840619755947837,128.1,2.9981418859858215,1.4092220425995314,0
rbt_605988,2.6871015102923224,90.3,2.975749180833137,1.4004819132795878,0
smt_22686,8.473579466481977,286.65,2.9560716785215346,1.850441184175372,0
smt_6239,8.473124667064477,286.65,2.9559130183375117,1.8503478046860204,0
smt_23961,8.472680751520965,286.65,2.955758155074469,1.850256847331669,0
smt_29407,8.472229196714578,286.65,2.955600626797341,1.8501643646676786,0
smt_6278,8.471824776967667,286.65,2.955459541938834,1.85008190454706,0
smt_6630,8.471353264097415,286.65,2.9552950511416065,1.8499857614413482,0
smt_19070,8.470879521685248,286.65,2.955129782551979,1.8498893304838582,0
smt_6639,8.47040607596393,286.65,2.9549646174651776,1.8497930485156944,0
smt_19117,8.46996415506773,286.65,2.9548104500497927,1.849703327901418,0
smt_21514,8.465425424600243,286.65,2.9532270799233364,1.8442771480122273,0
smt_5615,8.464967613318727,286.65,2.953067369027988,1.8441812934812891,0
smt_18742,8.464611086949773,286.65,2.9529429921331847,1.844106908157313,0
smt_6270,8.464051162478874,286.65,2.952747658286717,1.8439900220074807,0
smt_5967,8.46361567778696,286.65,2.9525957361894157,1.843899400249785,0
smt_5772,8.463101975170126,286.65,2.95241652718302,1.843792613103649,0
smt_6158,8.462593929514552,286.65,2.9522392916499403,1.8436871305955522,0
smt_6263,8.462153954755088,286.65,2.9520858031589357,1.843596118798505,0
smt_6384,8.461608332754517,286.65,2.951895458836392,1.8434833021164494,0
smt_22684,8.461074477985994,286.65,2.951709219600905,1.843373012354939,0
smt_22685,8.4606389075691,286.65,2.9515572675978023,1.8432833238402173,0
smt_29447,8.460182255456312,286.65,2.9513979610871486,1.843189471741,0
smt_19065,8.459693065055003,286.65,2.9512273033507777,1.8430891759726975,0
smt_24385,8.459140330918885,286.65,2.951034477906466,1.8429759411639146,0
smt_29448,8.457453483954426,286.65,2.950446008705539,1.8305991385991585,0
smt_6824,8.457007158708782,286.65,2.950290304799854,1.8305032635563998,0
smt_6855,8.456528590530237,286.65,2.950123352705473,1.8304006265975294,0
smt_19062,8.45596972614981,286.65,2.9499283886795085,1.8302809843206829,0
smt_7054,8.455525523948063,286.65,2.9497734254135928,1.8301860550002196,0
smt_6446,8.455071677376,286.65,2.9496150976368396,1.8300892167600251,0
smt_39006,8.454606693048616,286.65,2.9494528843707015,1.8299901617487893,0
smt_39008,8.454186533928759,286.65,2.949306308714027,1.8299007951966528,0
smt_39007,8.454168826335476,286.65,2.9493001312874503,1.8298970313890466,0
smt_6122,8.453765613826489,286.65,2.949159467582937,1.829811399199084,0
smt_18741,8.453256794588194,286.65,2.9489819621797295,1.82970352266961,0
smt_5938,8.452785396444474,286.65,2.9488175114057125,1.8296038035466866,0
smt_5946,8.452241064495237,286.65,2.948627617127241,1.8294888510831644,0
rbt_605804,1.821741670654092,61.95,2.94066452082985,1.3819958093958349,0
smt_856,4.811895288089906,163.8,2.9376650110438987,1.7314404262075778,0
smt_15622,4.811355450761416,163.8,2.937335440025284,1.7313476019704428,0
smt_23196,4.811055474551326,163.8,2.9371523043658887,1.7313075062622845,0
smt_15581,4.810733921879612,163.8,2.936955996263499,1.7312651809366832,0
smt_15568,4.810385897447143,163.8,2.936743527135008,1.7312169331141904,0
sbt_6048,4.762433702984977,163.8,2.907468683141011,1.3682508345326312,0
rbt_605829,2.619149866481155,90.3,2.900498191009031,1.3635818092392018,0
sbt_15045,6.258722697927697,216.3,2.893538001815856,1.3610614049678693,0
smt_23147,4.70263288018044,163.8,2.8709602443104028,1.703609368749202,0
smt_16038,4.702325081612488,163.8,2.870772333096757,1.7036115315407467,0
rbt_1607316,2.590126659294943,90.3,2.868357319263503,2.173524386911096,0
rbt_1107342,1.7766967561923466,61.95,2.867952794499349,1.3484853924609108,0
smt_37925,6.200890081617102,216.3,2.866800777446649,1.5765280460766242,0
smt_37924,6.2007293054147254,216.3,2.8667264472559983,1.5765511049148653,0
smt_37923,6.200385286098591,216.3,2.8665673999531163,1.576549209047318,0
smt_37864,6.2000462272448,216.3,2.8664106459754044,1.5765248363122464,0
smt_37863,6.199885617059302,216.3,2.8663363925378187,1.576524412146555,0
smt_37862,6.199725191526965,216.3,2.8662622244692395,1.5765378693842589,0
smt_37861,6.199460240827705,216.3,2.8661397322365714,1.5765449178455073,0
smt_37860,6.199139541527365,216.3,2.865991466263229,1.5765471010387468,0
smt_37859,6.198801428349731,216.3,2.8658351494913226,1.5765356949624303,0
smt_37858,6.198549545403022,216.3,2.8657186987531307,1.5765489228198168,0
smt_37831,6.198201320757335,216.3,2.8655577072387124,1.5765249376990964,0
smt_37898,6.182285495382672,216.3,2.858199489312377,1.5685072081898284,0
smt_37897,6.181900665561021,216.3,2.858021574461868,1.568486286797208,0
smt_37896,6.181566348951822,216.3,2.85786701292271,1.5684752426617639,0
smt_37895,6.181207804768613,216.3,2.857701250470926,1.5684604869791832,0
smt_37894,6.180855048863985,216.3,2.8575381640610193,1.5684448799944681,0
smt_37893,6.180521454574781,216.3,2.857383936465456,1.5684337476289585,0
smt_37892,6.180173287792838,216.3,2.857222971702653,1.568419564820801,0
smt_37891,6.1798375221242665,216.3,2.857067740233133,1.5684096163746963,0
smt_37890,6.1794805347093416,216.3,2.856902697507786,1.5684101879429875,0
smt_37889,6.178998260093583,216.3,2.856679731897172,1.5683682763270717,0
smt_37888,6.178755939287038,216.3,2.856567701935755,1.5683590136819656,0
smt_37887,6.1785239765296,216.3,2.8564604607164124,1.5683648970342718,0
smt_37886,6.178165063723709,216.3,2.856294527842676,1.5683519365014538,0
smt_37885,6.177819300941879,216.3,2.85613467449925,1.5683414796054709,0
smt_37884,6.177470062542523,216.3,2.855973214305373,1.5683309580919342,0
smt_37883,6.17711970881457,216.3,2.8558112384718304,1.5683217295789902,0
smt_37882,6.176758888680409,216.3,2.855644423800466,1.5683100426167964,0
smt_37881,6.176410069781328,216.3,2.8554831575503132,1.568300891628265,0
smt_37880,6.176056108100725,216.3,2.8553195136850325,1.568288964347148,0
smt_37879,6.175723408406467,216.3,2.855165699679365,1.568284078267599,0
smt_37878,6.175356633433897,216.3,2.854996131962042,1.5682723604649251,0
smt_37877,6.175011682557068,216.3,2.854836653979227,1.5682653871126961,0
smt_37876,6.174654140020285,216.3,2.8546713546094704,1.5682571783333064,0
smt_37875,6.174295018387751,216.3,2.8545053251908232,1.568249232399423,0
smt_37874,6.173934527314815,216.3,2.8543386626513243,1.5682402169249539,0
smt_37873,6.173584449935238,216.3,2.854176814579398,1.5682300079475338,0
smt_37945,6.173259513337262,216.3,2.854026589615008,1.5682125804856317,0
smt_37944,6.173027904134306,216.3,2.853919511851274,1.568212717381469,0
smt_37943,6.172756747957499,216.3,2.853794150696948,1.5682132684586978,0
smt_37942,6.172437884117198,216.3,2.853646733295052,1.5682072299783758,0
smt_37941,6.172121752261983,216.3,2.853500578946825,1.5682014630771794,0
smt_37940,6.17180859113491,216.3,2.85335579802816,1.56819713919967,0
smt_37939,6.171488872498103,216.3,2.853207985436016,1.5681929927302933,0
smt_37938,6.1711624496535995,216.3,2.853057073348867,1.5681886633276605,0
smt_37937,6.1708322642490305,216.3,2.8529044217517474,1.5681834039024523,0
smt_37936,6.1705077847614165,216.3,2.852754408119009,1.5681792029300086,0
smt_37935,6.170183197633756,216.3,2.8526043447220326,1.5681714245609797,0
smt_37934,6.169889632131218,216.3,2.8524686232691714,1.5681714511920186,0
smt_37933,6.169568858032235,216.3,2.852320322714857,1.568168281855321,0
smt_37932,6.169246313246578,216.3,2.852171203535172,1.5681651509756802,0
smt_13546,4.654404503348207,163.8,2.841516790810871,1.6859462310076125,0
smt_21225,4.654115491527439,163.8,2.8413403489178504,1.6859149574564178,0
smt_13930,4.653595654367535,163.8,2.8410229880143683,1.685832557165764,0
smt_21226,4.6530797281953005,163.8,2.8407080147712453,1.6857439141458637,0
smt_13280,4.652685112024437,163.8,2.84046710135802,1.6856817140690967,0
smt_14437,4.652309526745008,163.8,2.8402378063156335,1.6856245424177745,0
smt_13955,4.651930921634532,163.8,2.8400066676645497,1.685567636574244,0
smt_26469,4.6515474453417625,163.8,2.8397725551537008,1.685506822167329,0
smt_20808,4.651212376742051,163.8,2.8395679955690176,1.6854582865472523,0
smt_23095,4.650861584690126,163.8,2.8393538368071582,1.685394190837717,0
smt_20807,4.650684711771361,163.8,2.8392458557822713,1.6853826625509825,0
smt_13717,4.650311871999141,163.8,2.839018236873712,1.6853231870376115,0
sbt_22669,6.104681289580289,216.3,2.8223214468702214,1.326886692552779,0
rbt_3405987,1.7479445556166238,61.95,2.821540848452984,1.328299263540391,0
smt_37986,6.1027471933667305,216.3,2.8214272738634905,1.5894440778936867,0
smt_37987,6.102498748411174,216.3,2.821312412580293,1.589427562288899,0
smt_37993,6.102181363774945,216.3,2.821165679045282,1.5893909271111217,0
smt_37920,6.102022693770522,216.3,2.821092322593861,1.589392296327868,0
smt_37919,6.101637584906291,216.3,2.820914278736149,1.5893601752145037,0
smt_37918,6.101259593083614,216.3,2.8207395252351426,1.5893283355195065,0
smt_37917,6.100898040923587,216.3,2.8205723721329576,1.5892999174135285,0
smt_37916,6.1005255637255535,216.3,2.820400168157907,1.5892698628799702,0
smt_37915,6.100158192578663,216.3,2.8202303248167646,1.589234512546426,0
smt_37914,6.099885312614785,216.3,2.820104166719734,1.5892188109546537,0
smt_37913,6.0995280859965595,216.3,2.8199390134057136,1.5891923670818286,0
smt_37912,6.0991522122260395,216.3,2.8197652391243824,1.5891627069241372,0
smt_40685,6.098788220210303,216.3,2.81959695802603,1.589133642455699,0
smt_37911,6.098443476915919,216.3,2.8194375760129073,1.589085289336851,0
smt_37910,6.098423270312807,216.3,2.8194282340789676,1.5891080667005548,0
smt_37909,6.0980533294687085,216.3,2.819257202713226,1.5890800668309983,0
smt_37908,6.097690722442172,216.3,2.8190895619242586,1.589054590038401,0
smt_40683,6.097311605647882,216.3,2.818914288325419,1.5890251446987316,0
smt_37906,6.096959255240147,216.3,2.818751389385181,1.589000743835549,0
smt_37905,6.096594198104004,216.3,2.818582615859456,1.58897298984213,0
smt_14797,4.616807993706842,163.8,2.8185640987221254,1.668374872921582,0
smt_37904,6.096254383894929,216.3,2.8184255126652467,1.5889491865258325,0
smt_23041,4.616428160730059,163.8,2.818332210457911,1.6683142216277325,0
smt_37903,6.095913592710073,216.3,2.818267957794763,1.5889194346259383,0
smt_14823,4.616043326802002,163.8,2.818097269109891,1.6682533439528662,0
smt_13752,4.615653013910176,163.8,2.817858982851145,1.668166733526525,0
smt_23225,4.603982390749315,163.8,2.8107340602865167,1.6616206587596245,0
smt_21220,4.603550999890116,163.8,2.8104706959036116,1.6615477328939667,0
smt_14845,4.603100438230273,163.8,2.810195627735209,1.6614721608595955,0
rbt_1132012,2.5375470906532964,90.3,2.81012966849756,1.3207407683491177,0
smt_26425,4.602634104631326,163.8,2.8099109307883547,1.6613936713672672,0
smt_20810,4.602170844654475,163.8,2.8096281102896676,1.6613122423155284,0
smt_26429,4.601780824114689,163.8,2.80939000251202,1.661247919514908,0
smt_26430,4.601394088002204,163.8,2.809153899879245,1.6611847879725765,0
rbt_1607268,2.151504329860153,76.65,2.8069201955122676,1.3190864875636439,0
smt_21222,4.589210154314197,163.8,2.8017156009244184,1.6553386801185876,0
smt_14301,4.588893675450491,163.8,2.801522390384915,1.6552849788862358,0
smt_23277,4.588493916714679,163.8,2.8012783374326484,1.6552109993034938,0
smt_26427,4.588117987572341,163.8,2.8010488324617464,1.6551442762944422,0
smt_20812,4.58772188175396,163.8,2.800807009617802,1.655073492181411,0
smt_15154,4.587324998404978,163.8,2.800564712090951,1.6550018930619659,0
smt_14674,4.58695079864077,163.8,2.800336262906453,1.6549403257526532,0
sbt_35588,6.055857587457318,216.3,2.799749231371853,1.3157703218216503,0
rbt_605823,2.5259797580316574,90.3,2.7973197763362765,1.3154710993628578,0
smt_37963,6.05027731929555,216.3,2.7971693570483356,1.566502338499035,0
smt_37983,6.049804723424051,216.3,2.7969508661230007,1.5664592591378865,0
smt_37984,6.049324463892347,216.3,2.796728832127761,1.566415041326536,0
smt_37985,6.048852074715076,216.3,2.7965104367614773,1.5663720113536754,0
smt_37947,6.0483874472097,216.3,2.7962956297779473,1.566328191180293,0
smt_37948,6.047962503075098,216.3,2.7960991692441506,1.566291413199551,0
sbt_21281,4.53440124229102,163.8,2.768254726673394,1.3006630741526306,0
rbt_605989,2.468083888429615,90.3,2.7332047490914895,1.284581441828503,0
rbt_1121173,2.463709716872757,90.3,2.728360705285445,1.2833309363310512,0
rbt_605807,2.4573102443259,90.3,2.7212738032401993,1.280298305943225,0
smt_29426,5.8583277987750435,216.3,2.708427091435526,1.4667444943782444,0
rbt_606130,2.069957991784212,76.65,2.7005322789096047,1.2689401798387234,0
sbt_3491,4.416404870673184,163.8,2.6962178697638484,1.2673964433867815,0
rbt_637399,1.6604830150607706,61.95,2.6803599920270713,1.2595456710037254,0
sbt_21191,4.381023225846951,163.8,2.674617353996917,1.2575202190787476,0
sbt_26310,4.323022765499809,163.8,2.639208037545671,1.2410312735205524,0
rbt_637705,2.3693885137987136,90.3,2.6239075457350096,1.9876311468567962,0
rbt_1105833,2.3620997880279466,90.3,2.6158358671405835,1.229619231110272,0
rbt_1607276,2.352630398066378,90.3,2.6053492780358565,1.224216493793812,0
smt_37960,5.60276256380726,216.3,2.5902739546034486,1.4878986212903886,0
smt_37962,5.602355706169878,216.3,2.590085855834433,1.4878620851510975,0
smt_37981,5.584084834112086,216.3,2.5816388507221846,1.4637629872424647,0
smt_37951,5.583704065208268,216.3,2.581462813318663,1.4637254074480064,0
smt_37952,5.5833226906809434,216.3,2.581286495922766,1.4636928033536145,0
smt_37953,5.582853290029767,216.3,2.581069482214409,1.463646441729123,0
smt_37954,5.582401166701063,216.3,2.5808604561724744,1.46569929966343,0
smt_37955,5.5819106123970945,216.3,2.580633662689364,1.465650431837674,0
smt_37956,5.581516242811054,216.3,2.580451337406867,1.4656209684337853,0
smt_37957,5.581049859869159,216.3,2.5802357188484324,1.4655810555125945,0
smt_37958,5.580586205023782,216.3,2.5800213615459002,1.4655426379162086,0
smt_37959,5.580113782342002,216.3,2.5798029506897833,1.4655028491291848,0
rbt_1607319,2.3156964091557617,90.3,2.564447850670833,1.8216262941573254,0
rbt_622709,2.312948185694668,90.3,2.561404413836842,1.20423014445929,0
rbt_1607328,2.3106702155812937,90.3,2.5588817448297827,1.2032442800546523,0
rbt_607366,2.309548275451126,90.3,2.5576392862138713,1.2019333236003307,0
smt_37979,5.464212327809671,216.3,2.5262192916364636,1.4519068117992846,0
smt_37980,5.463807798271072,216.3,2.5260322691960573,1.4518488443171667,0
sbt_21953,4.120096336997229,163.8,2.5153213290581378,1.1837868904857194,0
sbt_21849,4.120096270628411,163.8,2.5153212885399334,1.1837868711966892,0
sbt_21968,4.120096190216222,163.8,2.5153212394482427,1.183786847874461,0
smt_6074,7.176805912205246,286.65,2.5036825090546824,1.48155591168515,0
smt_6082,7.176336562148796,286.65,2.503518772771253,1.4814751089353984,0
smt_6649,7.1758740094068605,286.65,2.5033574077819156,1.4813956430918027,0
smt_29408,7.175421760997338,286.65,2.5031996375361376,1.4813183632596505,0
smt_6422,7.1749685541792045,286.65,2.5030415329423357,1.4812411677142279,0
smt_22683,7.174513021796815,286.65,2.5028826170580203,1.4811637322951852,0
smt_22793,7.155841452432064,286.65,2.4963689002030574,1.467815600403366,0
smt_22790,7.155366916647269,286.65,2.4962033548394453,1.4677299729077504,0
smt_29449,7.154929573218479,286.65,2.4960507843078594,1.468397213495214,0
smt_6370,7.154908827871267,286.65,2.4960435471380666,1.4676477715963898,0
smt_6401,7.154472277588372,286.65,2.4958912533013686,1.4683171396410282,0
smt_29409,7.154448358472964,286.65,2.4958829089387633,1.4675656302253985,0
smt_21348,7.154012392215679,286.65,2.4957308188437746,1.4682441446611796,0
smt_5650,7.153965943806497,286.65,2.495714614968253,1.467479425477838,0
smt_6094,7.153489688913092,286.65,2.495548469880723,1.4673931047588145,0
smt_29477,7.153123984590693,286.65,2.4954208911881017,1.4673292923798773,0
smt_29450,7.152677057365243,286.65,2.495264977277252,1.4672507567454025,0
smt_6231,7.1521856968593855,286.65,2.4950935624836514,1.4671635154435119,0
smt_6340,7.151725233762795,286.65,2.4949329264827473,1.4670826178103622,0
smt_25183,5.382242270170289,216.3,2.4883228248591256,1.3591558962996022,0
smt_25117,5.3815975580321425,216.3,2.48802476099498,1.3588585374414779,0
smt_25116,5.380934854540905,216.3,2.487718379353169,1.3585531894068685,0
smt_25115,5.380416375704503,216.3,2.4874786757764693,1.3583145134884118,0
smt_25114,5.379961349233433,216.3,2.4872683075512865,1.3581052060394205,0
smt_25113,5.3794303529385035,216.3,2.487022816892512,1.3578611416149977,0
smt_25112,5.37886947305262,216.3,2.486763510426546,1.3576035625239748,0
smt_25111,5.378502024909184,216.3,2.486593631488296,1.3574349385595657,0
smt_25110,5.378236627622947,216.3,2.486470932789157,1.3573132070921314,0
smt_25109,5.3775366560406885,216.3,2.486147321331802,1.3569923922494127,0
smt_25108,5.377003753994101,216.3,2.4859009496043,1.356748388889972,0
smt_25107,5.376285890486564,216.3,2.48556906633683,1.3564200241356748,0
smt_25106,5.375659149261346,216.3,2.4852793108004376,1.3561336494509775,0
smt_25105,5.375018042840457,216.3,2.484982913934562,1.3558410100003415,0
smt_29427,5.3743766536820585,216.3,2.48468638635324,1.3555485451563944,0
smt_6407,5.373107196094014,216.3,2.4840994896412454,1.3549705891235033,0
smt_22794,5.372475397773299,216.3,2.4838073961041602,1.354683392749413,0
smt_6477,5.37177815847926,216.3,2.483485047840619,1.3543667956901295,0
smt_6641,5.370872393700654,216.3,2.4830662938976666,1.3539560584673562,0
smt_6157,5.370236438524525,216.3,2.482772278559651,1.3536680416825029,0
smt_6694,5.3695182211891,216.3,2.482440231710171,1.3533431376825265,0
smt_6581,7.0877851056428325,286.65,2.472626933766905,1.4413813394285153,0
smt_6701,7.087321733930554,286.65,2.472465283073628,1.4413026760835919,0
smt_21959,7.086812879492396,286.65,2.4722877653906843,1.4412146171547262,0
rbt_1633892,2.232295270529386,90.3,2.4720877857468286,1.1619063176238749,0
sbt_21137,4.047524594271133,163.8,2.4710162358187624,1.1621573751575915,0
smt_19219,7.0775529271302595,286.65,2.4690573616362324,1.4306111106856152,0
smt_5952,7.077062908739217,286.65,2.468886415049439,1.4305193401436904,0
smt_29478,7.0765519001298705,286.65,2.4687081458677382,1.4304231196027735,0
smt_22841,7.076101646838878,286.65,2.468551071634006,1.4303394201402153,0
smt_6660,7.075615282078177,286.65,2.4683813996435293,1.430248678129957,0
rbt_1134165,2.2265960786108274,90.3,2.465776388273342,1.1603081154575252,0
rbt_1131858,2.225312817776126,90.3,2.464355279929265,1.1593007106839652,0
smt_22845,7.03616238824019,286.65,2.4546179620583257,1.4072507183928744,0
smt_18913,7.0355944096956655,286.65,2.454419818487935,1.4071434007428196,0
smt_5786,7.035043926032335,286.65,2.454227778137916,1.4070391958229933,0
smt_29479,7.034570022334856,286.65,2.4540624532826993,1.406950396577417,0
smt_19224,7.034082992984314,286.65,2.4538925494450776,1.4068594912732066,0
rbt_1607353,2.2061281528244296,90.3,2.443109803792281,1.1482476786505116,0
sbt_34390,3.987369968236796,163.8,2.4342917999003637,1.8440315651268702,0
smt_37973,5.082735891728106,216.3,2.3498547811965356,1.377489969380582,0
smt_37991,5.08256073243538,216.3,2.349773801403319,1.3774769116504428,0
smt_37974,5.082313852826106,216.3,2.3496596638123464,1.3774628324463116,0
smt_37990,5.0818929911954225,216.3,2.3494650907052343,1.3774207603439101,0
smt_37975,5.081503791132098,216.3,2.3492851554008776,1.3773857565336902,0
smt_37976,5.081082651084241,216.3,2.349090453575701,1.3773460051378599,0
smt_37977,5.080667367187674,216.3,2.3488984591713704,1.3773064216045146,0
smt_37978,5.080272185982792,216.3,2.34871575866056,1.3772728815523394,0
sbt_20633,3.8179159575157584,163.8,2.330840022903393,1.5383123266917078,0
smt_37970,5.037748968431972,216.3,2.329056388549224,1.3669996755549103,0
smt_37971,5.037195964250751,216.3,2.3288007231857377,1.3669317216838008,0
smt_37972,5.036910116338876,216.3,2.3286685697359575,1.3669119281112587,0
smt_37989,5.03650213765389,216.3,2.328479952683259,1.3669094492413676,0
sbt_4619,4.991475003234479,216.3,2.307662969595228,1.0847115708285031,0
smt_37964,4.930564820905853,216.3,2.279502922286571,1.3420960867235125,0
smt_37965,4.92912155207298,216.3,2.278835669012011,1.3419593858333807,0
smt_37994,4.928933144995386,216.3,2.2787485644916257,1.3419310938386229,0
smt_37995,4.928928688703427,216.3,2.278746504254936,1.3419308170917426,0
smt_37996,4.928923319642809,216.3,2.278744022026264,1.3419494353531487,0
smt_37966,4.928596927506397,216.3,2.2785931241361057,1.3419241861772166,0
smt_37967,4.928197921629924,216.3,2.2784086553998724,1.3418890316972558,0
smt_37968,4.927788809462308,216.3,2.2782195143145207,1.3418523582571702,0
smt_37969,4.927387293541801,216.3,2.278033885132594,1.3418115091314402,0
rbt_606110,1.3873111960535085,61.95,2.2394046748240655,1.052163727970951,0
rbt_1607284,2.0146272315727822,90.3,2.2310379087184744,1.0488514452733524,0
rbt_1607302,1.3655295610186258,61.95,2.204244650554682,1.0356108061391396,0
rbt_607382,1.969575078798514,90.3,2.181146266665021,1.0254549021759594,0
rbt_1607273,1.6707574751472296,76.65,2.17972273339495,1.0242329157817556,0
sbt_26614,3.5313214709108607,162.75,2.169782777825414,1.6433793220649218,0
sbt_26512,3.5313198833267903,162.75,2.1697818023513302,1.6433783344955044,0
sbt_16246,3.5313193045907654,162.75,2.1697814467531584,1.6433779750827042,0
sbt_5828,3.5313165645544413,163.8,2.155870918531405,1.632841813681113,0
sbt_3790,3.5062101672151487,163.8,2.140543447628296,1.0056186320735165,0
rbt_1137150,1.3181524743927433,61.95,2.1277683202465587,1.0002866827395211,0
rbt_3405843,1.915944119567373,90.3,2.1217542852351863,0.9977337137855479,0
rbt_1607288,1.6104313805146513,76.65,2.1010194135872813,0.9875110502836978,0
rbt_605817,1.6020728614922768,76.65,2.090114626865332,0.9824441252126642,0
smt_13591,3.4035903724437397,163.8,2.0778940002709034,1.0304585819323433,0
sbt_30492,2.5858300932152196,124.95,2.069491871320704,0.9725698306386542,0
rbt_607387,1.859237766817784,90.3,2.058956552400647,0.9676003007283002,0
sbt_21147,2.6342961703739314,128.1,2.0564372914706723,0.966344429600123,0
sbt_17923,2.6342906895249403,128.1,2.0564330129000314,0.9663401112773423,0
rbt_626695,1.851190959185838,90.3,2.0500453590097876,1.5529592263381107,0
rbt_623432,1.8511037125610341,90.3,2.0499487403776677,0.9638776297181232,0
sbt_3473,3.3352204965769685,163.8,2.036154149314388,0.9571300092099668,0
sbt_26790,4.39290200556384,216.3,2.030930192123828,0.9549410493651003,0
smt_18691,5.798943101761159,286.65,2.023004745076281,1.0631913941514002,0
smt_18692,5.798242261850119,286.65,2.0227602518228216,1.0630112831682028,0
smt_22142,5.797617594136543,286.65,2.022542331811109,1.0628511874218436,0
smt_29410,5.797050747556923,286.65,2.022344583135155,1.062706270193625,0
smt_4821,5.796510001406519,286.65,2.0221559397894713,1.0625683455269657,0
smt_18693,5.795851542325596,286.65,2.0219262314061037,1.0624008194154773,0
smt_5832,5.795244824931649,286.65,2.0217145734978716,1.062246869765638,0
smt_18694,5.794609581939786,286.65,2.021492964221101,1.0620861070155352,0
smt_5643,5.7940497826853266,286.65,2.0212976740573265,1.0619447985184893,0
smt_29483,5.793493465884376,286.65,2.0211035987735486,1.0618047055319173,0
smt_6014,5.792942527616557,286.65,2.0209113998313475,1.0616662984643401,0
smt_18695,5.792307035625084,286.65,2.0206897036891975,1.0615070606382115,0
smt_29482,5.791742076069586,286.65,2.020492613315746,1.0613658669902746,0
smt_6195,5.791150002035593,286.65,2.020286063853338,1.0612182724434585,0
smt_6105,5.790555871302589,286.65,2.0200787968960716,1.061070552582065,0
smt_19334,5.752155567381676,286.65,2.0066825631891425,1.0414724902305699,0
smt_19331,5.75153558896941,286.65,2.006466279075322,1.0412825868678313,0
smt_22269,5.750926731214983,286.65,2.0062538744863017,1.0410964106869482,0
sbt_34896,4.2948668832272325,216.3,1.9856065109695942,0.9333687645664951,0
sbt_34381,3.207615724813608,163.8,1.9582513582500658,0.9205563172142174,0
smt_29480,5.5320604740764985,286.65,1.9299007409999995,1.063204912632389,0
smt_19271,5.530891163280419,286.65,1.9294928181686446,1.0629534990194947,0
smt_5537,5.5304269358006515,286.65,1.9293308689344677,1.062854136359173,0
rbt_605808,1.7359642937526392,90.3,1.9224410783528674,0.9032598582256801,0
smt_19274,5.509889992480913,286.65,1.9221664024004583,1.0502798766746075,0
smt_4942,5.509344659096275,286.65,1.9219761587637452,1.0501613575821698,0
smt_18740,5.50881255482964,286.65,1.921790530203956,1.050046055772753,0
smt_5191,5.5082829044948785,286.65,1.9216057577166854,1.0499316222596258,0
smt_5198,5.507758254408055,286.65,1.9214227296033684,1.0498186010047268,0
smt_5549,5.507180023761084,286.65,1.9212210095102336,1.049694421079045,0
smt_19273,5.506588620536182,286.65,1.9210146940646025,1.0495678296883066,0
smt_5414,5.5060921588307306,286.65,1.9208414996793062,1.0494618876911466,0
smt_5522,5.505540145608395,286.65,1.920648925731169,1.0493444426249312,0
rbt_1607326,1.7327952291260675,90.3,1.9189315937165754,0.9022171164753936,0
smt_40861,5.479595750725279,286.65,1.9115980292081909,1.0333276120086203,0
smt_40860,5.4792395035613435,286.65,1.91147374971615,1.0332498391032463,0
smt_40859,5.478865004308911,286.65,1.9113431028462975,1.0331682472792239,0
smt_40858,5.478485305530759,286.65,1.911210642082944,1.033085696316822,0
smt_40375,3.1304584152392416,163.8,1.9111467736503307,0.9512575967217011,0
smt_40857,5.4780192886482615,286.65,1.9110480686022193,1.0329846184038545,0
smt_40856,5.477549588390414,286.65,1.9108842101484094,1.0328830093186445,0
smt_40374,3.1299066592685474,163.8,1.9108099262933744,0.950929871061389,0
smt_40855,5.477091185003615,286.65,1.9107242926926968,1.032784103891136,0
smt_40854,5.4766576813259915,286.65,1.910573061687072,1.0326908075638228,0
smt_40358,3.1293577738864915,163.8,1.9104748314325344,0.9506045941176601,0
smt_40853,5.4761896487797745,286.65,1.9104097850269581,1.0325903389818454,0
smt_40852,5.475718856138223,286.65,1.9102455454869087,1.032489549795275,0
smt_22899,5.475496677731942,286.65,1.9101680368853804,1.0251859437765407,0
smt_5757,5.475463446651506,286.65,1.9101564439740124,1.0254275898208367,0
smt_40357,3.128779888161874,163.8,1.9101220318448557,0.9502629374753487,0
smt_5956,5.474936041110623,286.65,1.9099724545999037,1.0250468420456478,0
smt_6028,5.474879584159515,286.65,1.90995275916955,1.0252836626560915,0
smt_40356,3.1282931839191757,163.8,1.9098248986075552,0.9499758341040576,0
smt_22898,5.474286518234583,286.65,1.9097458636785567,1.0251378593586582,0
smt_16985,5.473804177297018,286.65,1.9095775954289267,1.0250195700306397,0
smt_40355,3.1277373603268335,163.8,1.9094855679650995,0.9496486832522925,0
smt_6106,5.473248725133729,286.65,1.9093838217804742,1.0248836770348058,0
smt_6021,5.472698528200145,286.65,1.9091918814582751,1.0247494148527252,0
smt_40354,3.1271725870456506,163.8,1.909140773532143,0.9493170615291994,0
smt_6212,5.472163566850098,286.65,1.9090052561835331,1.0246192008240804,0
smt_6044,5.471607744255724,286.65,1.9088113533074218,1.0244842549464002,0
smt_40353,3.126601256958531,163.8,1.908791976165159,0.9489824117959612,0
smt_6029,5.471065836095429,286.65,1.9086223045858817,1.0243530277244164,0
smt_40352,3.1261243067316715,163.8,1.908500797760483,0.9487036806440995,0
smt_19276,5.470524356496508,286.65,1.9084334053711873,1.0242222409585373,0
smt_40351,3.125672322436356,163.8,1.9082248610722563,0.948440077012234,0
smt_22896,5.469906133077784,286.65,1.9082177335000121,1.0240733304789837,0
smt_6693,5.4694888953171885,286.65,1.908072176981402,1.0239730803931826,0
smt_41231,5.4694719807704635,286.65,1.908066276215058,1.0239690208405412,0
...